// Generated for: spectre
// Generated on: Oct  6 16:02:40 2022
// Design library name: Design
// Design cell name: inverter_simulate
// Design view name: schematic
simulator lang=spectre
global 0 vdd!
