// Generated for: spectre
// Generated on: Oct  6 17:39:22 2022
// Design library name: Design
// Design cell name: NAND2_simulate
// Design view name: schematic
simulator lang=spectre
global 0 vdd!
