// Generated for: spectre
// Generated on: Oct 28 19:04:55 2022
// Design library name: Design
// Design cell name: flipflop_simulate_setup
// Design view name: schematic
simulator lang=spectre
global 0 vdd!
