// Generated for: spectre
// Generated on: Oct 28 18:25:53 2022
// Design library name: Design
// Design cell name: flipflop_simulate_ac
// Design view name: schematic
simulator lang=spectre
global 0 vdd!
