*SPEF "IEEE 1481-1998"
*DESIGN "cruisecontrol"
*DATE "Wed Nov  2 18:58:10 2022"
*VENDOR "Cadence Design Systems, Inc."
*PROGRAM "Innovus"
*VERSION "18.10-p002_1"
*DESIGN_FLOW "PIN_CAP NONE" "NAME_SCOPE LOCAL"
*DIVIDER /
*DELIMITER :
*BUS_DELIMITER []
*T_UNIT 1 NS
*C_UNIT 1 PF
*R_UNIT 1 OHM
*L_UNIT 1 HENRY

*NAME_MAP

*1 speed[7]
*2 speed[6]
*3 speed[5]
*4 speed[4]
*5 speed[3]
*6 speed[2]
*7 speed[1]
*8 speed[0]
*9 cruisespeed[7]
*10 cruisespeed[6]
*11 cruisespeed[5]
*12 cruisespeed[4]
*13 cruisespeed[3]
*14 cruisespeed[2]
*15 cruisespeed[1]
*16 cruisespeed[0]
*17 clk
*18 reset
*19 throttle
*20 set
*21 accel
*22 coast
*23 cancel
*24 resume
*25 brake
*26 cruisectrl
*27 n297
*28 n298
*29 n299
*30 n300
*31 n301
*32 n302
*33 n303
*34 n304
*35 n305
*36 n306
*37 n307
*38 n308
*39 n309
*40 n310
*41 n311
*42 n312
*43 N49
*44 N62
*45 N64
*46 N66
*47 N120
*48 N122
*49 N123
*50 N124
*51 N125
*52 N126
*53 N127
*54 N138
*55 N139
*56 N140
*57 N141
*58 N142
*59 N143
*60 N144
*61 N145
*62 N155
*63 N156
*64 N157
*65 N158
*66 N159
*67 N160
*68 N161
*69 N162
*70 N181
*71 N182
*72 n2
*73 n3
*74 n4
*75 n5
*76 n6
*77 n7
*78 n8
*79 n9
*80 n18
*81 n19
*82 n20
*83 n21
*84 n24
*85 n25
*86 n26
*87 n27
*88 n29
*89 n30
*90 n31
*91 n32
*92 n35
*93 n36
*94 n37
*95 n38
*96 n39
*97 n41
*98 n42
*99 n44
*100 n45
*101 n46
*102 n48
*103 n49
*104 n51
*105 n52
*106 n54
*107 n55
*108 n57
*109 n61
*110 n64
*111 n65
*112 n66
*113 n67
*114 n68
*115 n70
*116 n72
*117 n73
*118 n75
*119 n77
*120 n78
*121 n80
*122 n82
*123 n83
*124 n85
*125 n87
*126 n88
*127 n90
*128 n91
*129 n92
*130 n93
*131 n94
*132 n95
*133 n97
*134 n100
*135 n102
*136 n104
*137 n105
*138 n107
*139 n108
*140 n111
*141 n112
*142 n113
*143 n114
*144 n115
*145 n116
*146 n118
*147 n119
*148 n121
*149 n122
*150 n123
*151 n124
*152 n125
*153 n126
*154 n128
*155 n129
*156 n130
*157 n131
*158 n132
*159 n133
*160 n134
*161 n135
*162 n137
*163 n138
*164 n139
*165 n140
*166 n141
*167 n142
*168 n143
*169 n144
*170 n145
*171 n146
*172 n147
*173 n148
*174 n149
*175 n150
*176 n151
*177 n152
*178 n153
*179 n154
*180 n155
*181 n156
*182 n158
*183 n159
*184 n160
*185 n161
*186 n162
*187 n163
*188 n164
*189 n165
*190 n166
*191 n167
*192 n168
*193 n169
*194 n170
*195 n171
*196 n172
*197 n173
*198 n174
*199 n175
*200 n176
*201 n177
*202 n178
*203 n179
*204 n182
*205 n187
*206 n189
*207 n191
*208 n193
*209 n195
*210 n197
*211 n199
*212 n201
*213 n203
*214 n205
*215 n207
*216 n209
*217 n210
*218 n211
*219 n212
*220 n213
*221 n214
*222 n215
*223 n216
*224 n217
*225 n218
*226 n219
*227 n220
*228 n221
*229 n222
*230 n223
*231 n224
*232 n225
*233 n226
*234 n227
*235 n228
*236 n229
*237 n230
*238 n231
*239 n232
*240 n233
*241 n234
*242 n235
*243 n236
*244 n237
*245 n238
*246 n239
*247 n240
*248 n241
*249 n242
*250 n243
*251 n244
*252 n245
*253 n246
*254 n247
*255 n248
*256 n249
*257 n250
*258 n251
*259 n252
*260 n253
*261 n254
*262 n255
*263 n256
*264 n257
*265 n258
*266 n259
*267 n260
*268 n261
*269 n262
*270 n263
*271 n264
*272 n265
*273 n266
*274 n267
*275 n268
*276 n269
*277 n270
*278 n271
*279 n272
*280 n273
*281 n274
*282 n275
*283 n276
*284 n277
*285 n278
*286 n279
*287 n280
*288 n281
*289 n282
*290 n283
*291 n284
*292 n285
*293 n286
*294 n287
*295 n288
*296 n289
*297 n290
*298 n291
*299 n292
*300 n293
*301 n294
*302 n295
*303 n296
*304 state[2]
*305 state[1]
*306 state[0]
*307 r130\/carry[7]
*308 r130\/carry[6]
*309 r130\/carry[5]
*310 r130\/carry[4]
*311 r130\/carry[3]
*312 add_118/carry[7]
*313 add_118/carry[6]
*314 add_118/carry[5]
*315 add_118/carry[4]
*316 add_118/carry[3]
*317 add_118/carry[2]
*318 r127/carry[7]
*319 r127/carry[6]
*320 r127/carry[5]
*321 r127/carry[4]
*322 r127/carry[3]
*323 r127/carry[2]
*324 cruisespeed_reg\[0\]
*325 cruisespeed_reg\[7\]
*326 cruisespeed_reg\[6\]
*327 speed_reg\[1\]
*328 state_reg\[1\]
*329 speed_reg\[0\]
*330 speed_reg\[7\]
*331 speed_reg\[6\]
*332 speed_reg\[5\]
*333 state_reg\[0\]
*334 state_reg\[2\]
*335 cruisectrl_reg
*336 speed_reg\[4\]
*337 cruisespeed_reg\[4\]
*338 speed_reg\[3\]
*339 cruisespeed_reg\[3\]
*340 speed_reg\[2\]
*341 cruisespeed_reg\[2\]
*342 cruisespeed_reg\[5\]
*343 cruisespeed_reg\[1\]
*344 U3
*345 U4
*346 U5
*347 U6
*348 U7
*349 U8
*350 U9
*351 U10
*352 U11
*353 U12
*354 U13
*355 U14
*356 U15
*357 U18
*358 U19
*359 U20
*360 U21
*361 U22
*362 U23
*363 U24
*364 U30
*365 U31
*366 U32
*367 U33
*368 U34
*369 U35
*370 U36
*371 U38
*372 U39
*373 U40
*374 U41
*375 U42
*376 U44
*377 U45
*378 U46
*379 U47
*380 U49
*381 U50
*382 U51
*383 U52
*384 U54
*385 U55
*386 U56
*387 U57
*388 U60
*389 U61
*390 U62
*391 U63
*392 U66
*393 U67
*394 U68
*395 U69
*396 U71
*397 U72
*398 U74
*399 U75
*400 U76
*401 U78
*402 U79
*403 U80
*404 U81
*405 U82
*406 U83
*407 U84
*408 U85
*409 U86
*410 U87
*411 U88
*412 U92
*413 U93
*414 U94
*415 U96
*416 U97
*417 U98
*418 U99
*419 U100
*420 U101
*421 U103
*422 U104
*423 U106
*424 U107
*425 U109
*426 U110
*427 U113
*428 U114
*429 U117
*430 U118
*431 U119
*432 U120
*433 U121
*434 U123
*435 U126
*436 U129
*437 U130
*438 U131
*439 U132
*440 U133
*441 U134
*442 U135
*443 U136
*444 U137
*445 U138
*446 U139
*447 U140
*448 U143
*449 U144
*450 U146
*451 U147
*452 U148
*453 U149
*454 U150
*455 U151
*456 U152
*457 U154
*458 U155
*459 U157
*460 U160
*461 U162
*462 U164
*463 U73
*464 U115
*465 U124
*466 add_118/U1_1_6
*467 add_118/U1_1_5
*468 add_118/U1_1_4
*469 add_118/U1_1_3
*470 add_118/U1_1_2
*471 add_118/U1_1_1
*472 add_118/U1
*473 add_118/U2
*474 r127/U1_1_6
*475 r127/U1_1_5
*476 r127/U1_1_4
*477 r127/U1_1_3
*478 r127/U1_1_2
*479 r127/U1_1_1
*480 r127/U1
*481 r127/U2
*482 U166
*483 U167
*484 U168
*485 U169
*486 U170
*487 U171
*488 U172
*489 U173
*490 U174
*491 U175
*492 U176
*493 U177
*494 U178
*495 U179
*496 U180
*497 U181
*498 U182
*499 U183
*500 U184
*501 U185
*502 U186
*503 U187
*504 U188
*505 U189
*506 U190
*507 U191
*508 U192
*509 U193
*510 U194
*511 U195
*512 U196
*513 U197
*514 U198
*515 U199
*516 U200
*517 U201
*518 U202
*519 U203
*520 U204
*521 U205
*522 U206
*523 U207
*524 U208
*525 U209
*526 U210
*527 U211
*528 U212
*529 U213
*530 U214
*531 U215
*532 U216
*533 U217
*534 U218
*535 U219
*536 U220
*537 U221
*538 U222
*539 U223
*540 U224
*541 U225
*542 U226
*543 U227
*544 U228
*545 U229
*546 U230
*547 U231
*548 U232
*549 U233
*550 U234
*551 U235
*552 U236
*553 U237
*554 U238
*555 U239
*556 U240
*557 U241
*558 U242
*559 U243
*560 U244
*561 U245
*562 U246
*563 U247
*564 U248
*565 U249
*566 U250
*567 U251
*568 U252
*569 U253
*570 U254
*571 U255
*572 U256
*573 U257
*574 U258
*575 U259
*576 U260
*577 U261
*578 U262
*579 U263
*580 U264
*581 U265
*582 U266
*583 U267
*584 U268
*585 U269
*586 U270
*587 U271
*588 U272
*589 U273
*590 U274
*591 U275
*592 U276
*593 U277
*594 U278
*595 U279
*596 U280
*597 U281
*598 U282
*599 U283
*600 U284
*601 U285
*602 U286
*603 U287
*604 U288
*605 U289
*606 U290
*607 U291
*608 U292
*609 U293
*610 U294
*611 U295
*612 U296
*613 U297
*614 U298
*615 U299
*616 U300
*617 U301
*618 U302
*619 U303
*620 U304
*621 U305
*622 U306
*623 U307
*624 U308
*625 U309


*PORTS

*17 I *C 0 0
*18 I *C 0 0
*19 I *C 0 0
*20 I *C 0 0
*21 I *C 0 0
*22 I *C 0 0
*23 I *C 0 0
*24 I *C 0 0
*25 I *C 0 0
*1 O *C 0 0
*2 O *C 0 0
*3 O *C 0 0
*4 O *C 0 0
*5 O *C 0 0
*6 O *C 0 0
*7 O *C 0 0
*8 O *C 0 0
*9 O *C 0 0
*10 O *C 0 0
*11 O *C 0 0
*12 O *C 0 0
*13 O *C 0 0
*14 O *C 0 0
*15 O *C 0 0
*16 O *C 0 0
*26 O *C 0 0


*D_NET *1 2.71084e-05

*CONN
*I *426:A I *C 123 78 *L 0 *D NOR2X1
*I *557:A I *C 165 78 *L 0 *D NOR2X1
*I *481:B I *C 162 77 *L 0 *D XOR2X1
*I *517:Y O *C 100 62 *L 0 *D INVX8
*I *483:A I *C 127 77 *L 0 *D XNOR2X1
*I *520:A I *C 147 64 *L 0 *D XNOR2X1
*P *1 O *C 0 0 *L 0

*CAP
1 *517:Y 1.35542e-05
2 *1 1.35542e-05

*RES
1 *517:Y *1 0.0266667
2 *1:28 *520:A 0.8
3 *1:26 *1:28 4
4 *1:25 *483:A 0.4
5 *1:24 *1:26 0.8
6 *1:22 *1:25 4
7 *1:19 *1:24 0.16
8 *1:18 *517:Y 4
9 *1:16 *1:22 0.24
10 *1:15 *481:B 4
11 *1:14 *557:A 4
12 *1:13 *1:19 1.6
13 *1:12 *1:18 2.64
14 *1:11 *426:A 4
15 *1:11 *1:16 0.64
16 *1:10 *1:15 0.24
17 *1:10 *1:14 0.8
18 *1:9 *1:13 0.16
19 *1:8 *1:12 4
20 *1:7 *1:11 0.24
21 *1:6 *1:10 0.24
22 *1:5 *1:9 0.8
23 *1:4 *1:8 6.16
24 *1:4 *1:7 4
25 *1:3 *1:6 4
26 *1:2 *1:5 0.16
27 *1:1 *1:4 5.76
28 *1:1 *1:3 4.64
29 *1:0 *1:2 0.8
30 *1:0 *1:1 4
*END

*D_NET *2 2.71084e-05

*CONN
*I *580:A I *C 82 65 *L 0 *D AOI22X1
*I *590:C I *C 80 77 *L 0 *D OAI22X1
*I *579:A I *C 86 77 *L 0 *D XOR2X1
*I *516:Y O *C 112 82 *L 0 *D INVX8
*I *426:B I *C 121 76 *L 0 *D NOR2X1
*P *2 O *C 0 0 *L 0

*CAP
1 *2:1 1.35542e-05
2 *2 1.35542e-05

*RES
1 *2:1 *2 0.0266667
2 *2:25 *426:B 0.48
3 *2:24 *2:25 4
4 *2:23 *2:24 1.04
5 *2:21 *2:23 4
6 *2:20 *516:Y 4
7 *2:19 *2:21 2.56
8 *2:19 *2:20 4
9 *2:18 *2:19 3.6
10 *2:17 *2:18 0.24
11 *2:16 *2:17 1.68
12 *2:15 *2:16 1.04
13 *2:14 *2:15 0.8
14 *2:13 *2:14 0.24
15 *2:11 *2:13 0.16
16 *2:10 *579:A 4
17 *2:9 *2:11 0.24
18 *2:8 *2:10 0.48
19 *2:7 *2:9 0.4
20 *2:7 *2:8 4
21 *2:5 *2:7 1.44
22 *2:4 *590:C 4
23 *2:2 *2:5 4
24 *2:2 *2:4 0.48
25 *2:1 *580:A 0.4
26 *2:0 *2:2 2.64
27 *2:0 *2:1 4
*END

*D_NET *3 2.71084e-05

*CONN
*I *577:B I *C 75 85 *L 0 *D NOR2X1
*I *563:A I *C 72 77 *L 0 *D NAND2X1
*I *515:Y O *C 124 82 *L 0 *D INVX8
*I *524:A I *C 140 97 *L 0 *D XNOR2X1
*I *475:A I *C 162 97 *L 0 *D HAX1
*I *523:B I *C 151 97 *L 0 *D OR2X1
*I *559:C I *C 163 95 *L 0 *D OAI21X1
*P *3 O *C 0 0 *L 0

*CAP
1 *563:A 1.35542e-05
2 *3 1.35542e-05

*RES
1 *563:A *3 0.0266667
2 *3:48 *559:C 0.16
3 *3:45 *3:48 4
4 *3:44 *523:B 0.4
5 *3:43 *475:A 4
6 *3:42 *3:45 0.8
7 *3:41 *3:44 4
8 *3:40 *3:43 0.24
9 *3:39 *3:42 4
10 *3:38 *3:41 0.24
11 *3:37 *3:40 4
12 *3:37 *3:39 1.28
13 *3:36 *3:38 4
14 *3:36 *3:37 2.08
15 *3:35 *3:36 2.32
16 *3:33 *3:35 4
17 *3:32 *524:A 4
18 *3:32 *3:33 0.24
19 *3:31 *3:32 1.04
20 *3:30 *3:31 4
21 *3:29 *3:30 0.4
22 *3:28 *3:29 0.24
23 *3:27 *3:28 1.92
24 *3:26 *3:27 0.24
25 *3:25 *3:26 1.68
26 *3:24 *3:25 4
27 *3:22 *3:24 1.04
28 *3:22 *515:Y 4
29 *3:21 *3:22 0.48
30 *3:20 *3:21 4
31 *3:19 *3:20 2.56
32 *3:18 *3:19 0.48
33 *3:17 *3:18 4.48
34 *3:16 *3:17 0.48
35 *3:15 *3:16 1.68
36 *3:14 *3:15 0.24
37 *3:13 *3:14 0.4
38 *3:12 *3:13 1.04
39 *3:11 *3:12 0.4
40 *3:10 *3:11 0.24
41 *3:9 *3:10 1.92
42 *3:7 *3:9 0.24
43 *3:5 *563:A 4
44 *3:4 *3:7 1.92
45 *3:3 *577:B 4
46 *3:2 *3:5 0.24
47 *3:1 *3:4 4
48 *3:1 *3:3 0.8
49 *3:0 *3:2 0.64
50 *3:0 *3:1 1.04
*END

*D_NET *4 2.71084e-05

*CONN
*I *559:B I *C 164 96 *L 0 *D OAI21X1
*I *476:A I *C 168 104 *L 0 *D HAX1
*I *526:A I *C 159 104 *L 0 *D XNOR2X1
*I *525:B I *C 148 104 *L 0 *D OR2X1
*I *514:Y O *C 118 99 *L 0 *D INVX8
*P *4 O *C 0 0 *L 0

*CAP
1 *514:Y 1.35542e-05
2 *4 1.35542e-05

*RES
1 *514:Y *4 0.0266667
2 *4:19 *514:Y 4
3 *4:16 *4:19 0.24
4 *4:15 *525:B 4
5 *4:14 *526:A 4
6 *4:13 *4:16 4
7 *4:12 *4:15 1.04
8 *4:11 *4:14 0.8
9 *4:8 *4:13 7.68
10 *4:8 *4:12 4
11 *4:7 *4:11 4
12 *4:6 *476:A 4
13 *4:5 *559:B 4
14 *4:4 *4:8 2.72
15 *4:4 *4:7 0.24
16 *4:3 *4:6 1.04
17 *4:2 *4:5 1.04
18 *4:1 *4:4 1.04
19 *4:1 *4:3 4
20 *4:0 *4:2 4
21 *4:0 *4:1 0.4
*END

*D_NET *5 2.71084e-05

*CONN
*I *570:A I *C 89 104 *L 0 *D NAND2X1
*I *573:B I *C 92 105 *L 0 *D NOR2X1
*I *513:Y O *C 115 102 *L 0 *D INVX8
*I *424:A I *C 126 118 *L 0 *D NOR2X1
*I *528:A I *C 144 117 *L 0 *D XNOR2X1
*I *527:B I *C 151 117 *L 0 *D OR2X1
*I *558:A I *C 161 126 *L 0 *D NAND3X1
*I *477:A I *C 164 117 *L 0 *D HAX1
*P *5 O *C 0 0 *L 0

*CAP
1 *570:A 1.35542e-05
2 *5 1.35542e-05

*RES
1 *570:A *5 0.0266667
2 *5:45 *477:A 0.16
3 *5:44 *558:A 0.4
4 *5:43 *5:45 4
5 *5:42 *5:44 4
6 *5:41 *5:43 0.24
7 *5:41 *5:42 2.08
8 *5:40 *5:41 4
9 *5:39 *5:40 0.4
10 *5:38 *5:39 0.24
11 *5:36 *5:38 2.32
12 *5:34 *527:B 4
13 *5:33 *5:36 0.48
14 *5:32 *528:A 4
15 *5:31 *5:34 4
16 *5:31 *5:33 0.4
17 *5:30 *5:32 4
18 *5:30 *5:31 1.68
19 *5:29 *5:30 1.44
20 *5:28 *5:29 0.08
21 *5:27 *5:28 1.68
22 *5:25 *5:27 0.08
23 *5:24 *424:A 4
24 *5:23 *5:25 1.68
25 *5:22 *5:24 0.24
26 *5:22 *5:23 4
27 *5:21 *5:22 1.28
28 *5:20 *5:21 4
29 *5:19 *5:20 0.8
30 *5:18 *5:19 0.24
31 *5:16 *5:18 1.28
32 *5:15 *513:Y 4
33 *5:14 *5:16 0.24
34 *5:13 *5:15 0.8
35 *5:12 *5:14 0.4
36 *5:12 *5:13 4
37 *5:11 *5:12 0.64
38 *5:10 *5:11 0.48
39 *5:9 *5:10 5.52
40 *5:8 *5:9 0.48
41 *5:7 *5:8 0.4
42 *5:5 *5:7 4
43 *5:4 *573:B 4
44 *5:4 *5:5 1.84
45 *5:3 *5:4 0.4
46 *5:2 *5:3 0.24
47 *5:1 *5:2 4
48 *570:A *5:1 0.16
*END

*D_NET *6 2.71084e-05

*CONN
*I *424:B I *C 128 116 *L 0 *D NOR2X1
*I *512:Y O *C 112 122 *L 0 *D INVX8
*I *533:B I *C 142 116 *L 0 *D NOR2X1
*I *529:B I *C 147 124 *L 0 *D OR2X1
*I *478:A I *C 150 124 *L 0 *D HAX1
*I *558:B I *C 160 125 *L 0 *D NAND3X1
*I *530:A I *C 162 137 *L 0 *D XNOR2X1
*P *6 O *C 0 0 *L 0

*CAP
1 *6:7 1.35542e-05
2 *6 1.35542e-05

*RES
1 *6:7 *6 0.0266667
2 *6:31 *530:A 4
3 *6:29 *6:31 3.2
4 *6:28 *558:B 4
5 *6:28 *6:29 0.4
6 *6:27 *6:28 4
7 *6:26 *6:27 1.44
8 *6:25 *6:26 4
9 *6:24 *6:25 0.24
10 *478:A *6:24 4
11 *6:22 *478:A 0.16
12 *6:21 *6:22 4
13 *6:20 *6:21 0.64
14 *529:B *6:20 4
15 *6:18 *529:B 1.04
16 *6:16 *6:18 4
17 *6:15 *533:B 4
18 *6:14 *6:16 0.16
19 *6:13 *6:15 0.48
20 *6:13 *6:14 1.6
21 *6:12 *6:13 4
22 *6:10 *6:12 0.4
23 *6:9 *512:Y 4
24 *6:8 *6:10 0.24
25 *6:7 *6:9 1.04
26 *6:6 *6:8 2.96
27 *6:4 *6:7 4
28 *6:3 *6:6 0.24
29 *6:2 *424:B 4
30 *6:1 *6:4 4.24
31 *6:1 *6:3 0.4
32 *6:0 *6:2 0.48
33 *6:0 *6:1 4
*END

*D_NET *7 2.71084e-05

*CONN
*I *569:A I *C 89 124 *L 0 *D OAI21X1
*I *519:Y O *C 117 122 *L 0 *D INVX8
*I *529:A I *C 146 123 *L 0 *D OR2X1
*I *479:A I *C 152 137 *L 0 *D HAX1
*I *530:B I *C 157 137 *L 0 *D XNOR2X1
*I *558:C I *C 160 127 *L 0 *D NAND3X1
*P *7 O *C 0 0 *L 0

*CAP
1 *7:0 1.35542e-05
2 *7 1.35542e-05

*RES
1 *7:0 *7 0.0266667
2 *7:40 *558:C 4
3 *7:39 *7:40 0.24
4 *7:37 *7:39 1.04
5 *7:36 *530:B 0.4
6 *7:35 *7:37 2.88
7 *7:35 *7:36 4
8 *7:34 *7:35 0.24
9 *7:33 *7:34 0.8
10 *7:32 *7:33 0.24
11 *7:31 *7:32 4
12 *479:A *7:31 0.16
13 *7:29 *479:A 4
14 *7:28 *7:29 0.48
15 *7:27 *7:28 0.16
16 *7:26 *7:27 1.84
17 *7:25 *7:26 0.16
18 *7:24 *7:25 0.48
19 *7:22 *7:24 0.16
20 *7:21 *529:A 4
21 *7:21 *7:22 0.8
22 *7:20 *7:21 4
23 *7:19 *7:20 1.44
24 *7:18 *7:19 0.08
25 *7:17 *7:18 1.44
26 *7:16 *7:17 0.08
27 *7:15 *7:16 1.28
28 *7:14 *7:15 0.24
29 *7:13 *7:14 2.32
30 *7:11 *7:13 0.24
31 *7:10 *519:Y 4
32 *7:9 *7:11 1.04
33 *7:9 *7:10 4
34 *7:8 *7:9 0.64
35 *7:7 *7:8 0.24
36 *7:6 *7:7 6.16
37 *7:5 *7:6 0.24
38 *7:4 *7:5 0.4
39 *7:2 *7:4 4
40 *7:1 *569:A 4
41 *7:0 *7:2 0.16
42 *7:0 *7:1 0.24
*END

*D_NET *8 2.71084e-05

*CONN
*I *583:B I *C 84 136 *L 0 *D NOR2X1
*I *567:A I *C 87 137 *L 0 *D NAND2X1
*I *518:Y O *C 100 139 *L 0 *D INVX8
*I *480:A I *C 133 137 *L 0 *D INVX2
*I *623:A I *C 120 137 *L 0 *D INVX2
*I *479:B I *C 151 136 *L 0 *D HAX1
*P *8 O *C 0 0 *L 0

*CAP
1 *583:B 1.35542e-05
2 *8 1.35542e-05

*RES
1 *583:B *8 0.0266667
2 *8:33 *479:B 4
3 *8:32 *8:33 4
4 *8:31 *8:32 0.4
5 *8:28 *8:31 0.48
6 *8:27 *623:A 0.16
7 *8:26 *480:A 4
8 *8:25 *8:28 2.56
9 *8:24 *8:27 4
10 *8:23 *8:26 0.24
11 *8:22 *8:25 0.48
12 *8:21 *8:24 0.24
13 *8:20 *8:23 4
14 *8:20 *8:22 1.68
15 *8:19 *8:21 4
16 *8:19 *8:20 3.6
17 *8:18 *8:19 1.44
18 *8:17 *8:18 0.24
19 *8:15 *8:17 3.36
20 *8:14 *518:Y 4
21 *8:13 *8:15 0.24
22 *8:12 *8:14 0.24
23 *8:11 *8:13 0.4
24 *8:11 *8:12 4
25 *8:10 *8:11 0.4
26 *8:9 *8:10 0.24
27 *8:8 *8:9 2.56
28 *8:7 *8:8 0.24
29 *8:4 *8:7 0.4
30 *8:3 *567:A 4
31 *8:2 *583:B 0.4
32 *8:1 *8:4 4
33 *8:1 *8:3 0.24
34 *8:0 *8:2 4
35 *8:0 *8:1 0.4
*END

*D_NET *9 2.71084e-05

*CONN
*I *441:C I *C 66 45 *L 0 *D AOI22X1
*I *581:B I *C 68 56 *L 0 *D NOR2X1
*I *562:A I *C 70 57 *L 0 *D NAND2X1
*I *554:A I *C 46 44 *L 0 *D XOR2X1
*I *497:Y O *C 35 42 *L 0 *D INVX8
*I *473:B I *C 32 57 *L 0 *D XOR2X1
*P *9 O *C 0 0 *L 0

*CAP
1 *497:Y 1.35542e-05
2 *9 1.35542e-05

*RES
1 *497:Y *9 0.0266667
2 *9:29 *473:B 0.24
3 *9:28 *9:29 0.4
4 *9:27 *9:28 4
5 *9:26 *9:27 0.24
6 *9:25 *9:26 0.4
7 *9:24 *9:25 1.6
8 *497:Y *9:24 4
9 *9:22 *497:Y 0.64
10 *9:21 *9:22 0.24
11 *554:A *9:21 1.92
12 *9:18 *554:A 4
13 *9:17 *562:A 0.16
14 *9:16 *9:18 0.24
15 *9:15 *9:17 4
16 *9:14 *9:16 4
17 *9:13 *9:15 0.24
18 *9:12 *9:14 0.4
19 *9:11 *9:13 0.4
20 *9:10 *9:12 0.48
21 *581:B *9:11 4
22 *9:8 *9:10 2.96
23 *9:7 *581:B 1.28
24 *9:6 *9:8 0.48
25 *9:5 *9:7 4
26 *9:4 *9:6 0.8
27 *9:3 *9:5 0.16
28 *9:2 *9:4 4
29 *9:2 *9:3 2.88
30 *9:0 *9:2 4
31 *9:0 *441:C 1.04
*END

*D_NET *12 2.71084e-05

*CONN
*I *548:B I *C 60 85 *L 0 *D NOR2X1
*I *549:B I *C 58 77 *L 0 *D AOI21X1
*I *366:C I *C 67 96 *L 0 *D AOI22X1
*I *468:A I *C 44 84 *L 0 *D HAX1
*I *500:B I *C 73 97 *L 0 *D OR2X2
*I *499:Y O *C 32 82 *L 0 *D INVX8
*I *574:A I *C 76 104 *L 0 *D NAND2X1
*P *12 O *C 0 0 *L 0

*CAP
1 *499:Y 1.35542e-05
2 *12 1.35542e-05

*RES
1 *499:Y *12 0.0266667
2 *12:30 *574:A 0.16
3 *12:29 *12:30 4
4 *12:26 *12:29 1.84
5 *12:25 *499:Y 0.64
6 *12:24 *500:B 4
7 *12:23 *12:26 4
8 *12:22 *12:25 4
9 *12:20 *12:24 4
10 *12:20 *12:23 0.64
11 *12:19 *12:22 0.64
12 *12:19 *468:A 4
13 *12:18 *12:20 1.04
14 *12:17 *12:19 4
15 *12:15 *12:18 0.24
16 *12:14 *12:17 0.4
17 *12:13 *366:C 0.16
18 *12:12 *12:15 0.8
19 *12:11 *12:14 0.24
20 *12:10 *12:13 4
21 *12:10 *12:12 4
22 *12:9 *12:11 1.92
23 *12:8 *12:10 2.88
24 *12:7 *12:9 0.48
25 *12:6 *12:8 4
26 *12:3 *12:7 3.2
27 *12:3 *12:6 1.68
28 *12:2 *549:B 0.4
29 *12:1 *548:B 4
30 *12:1 *12:3 4
31 *12:0 *12:2 4
32 *12:0 *12:1 2.08
*END

*D_NET *14 2.71084e-05

*CONN
*I *470:A I *C 67 104 *L 0 *D HAX1
*I *352:C I *C 72 105 *L 0 *D AOI22X1
*I *545:B I *C 48 117 *L 0 *D AOI21X1
*I *544:B I *C 45 116 *L 0 *D NOR2X1
*I *565:A I *C 76 124 *L 0 *D NAND2X1
*I *502:Y O *C 41 119 *L 0 *D INVX8
*I *503:B I *C 76 117 *L 0 *D OR2X2
*P *14 O *C 0 0 *L 0

*CAP
1 *502:Y 1.35542e-05
2 *14 1.35542e-05

*RES
1 *502:Y *14 0.0266667
2 *14:23 *503:B 1.28
3 *544:B *502:Y 0.64
4 *14:20 *14:23 4
5 *14:19 *565:A 0.8
6 *14:18 *544:B 4
7 *14:15 *14:20 0.24
8 *14:14 *14:19 4
9 *14:13 *14:18 0.24
10 *14:12 *545:B 4
11 *14:11 *352:C 4
12 *14:10 *14:15 0.16
13 *14:10 *14:14 2.08
14 *14:9 *14:13 0.8
15 *14:9 *14:12 0.48
16 *14:8 *14:11 1.6
17 *14:8 *14:10 1.28
18 *14:7 *14:9 0.8
19 *14:6 *14:8 4
20 *14:4 *14:7 4
21 *14:3 *14:6 0.24
22 *14:2 *470:A 4
23 *14:1 *14:4 3.6
24 *14:1 *14:3 2.72
25 *14:0 *14:2 2.08
26 *14:0 *14:1 4
*END

*D_NET *17 2.71084e-05

*CONN
*I *326:CLK I *C 32 64 *L 0 *D DFFPOSX1
*I *325:CLK I *C 43 37 *L 0 *D DFFPOSX1
*I *342:CLK I *C 32 77 *L 0 *D DFFPOSX1
*I *337:CLK I *C 42 97 *L 0 *D DFFPOSX1
*I *339:CLK I *C 32 104 *L 0 *D DFFPOSX1
*I *341:CLK I *C 32 117 *L 0 *D DFFPOSX1
*I *343:CLK I *C 49 137 *L 0 *D DFFPOSX1
*I *324:CLK I *C 80 137 *L 0 *D DFFPOSX1
*I *327:CLK I *C 93 124 *L 0 *D DFFPOSX1
*I *329:CLK I *C 118 137 *L 0 *D DFFPOSX1
*I *340:CLK I *C 118 117 *L 0 *D DFFPOSX1
*I *338:CLK I *C 93 104 *L 0 *D DFFPOSX1
*I *336:CLK I *C 89 97 *L 0 *D DFFPOSX1
*I *332:CLK I *C 99 97 *L 0 *D DFFPOSX1
*I *331:CLK I *C 93 84 *L 0 *D DFFPOSX1
*I *330:CLK I *C 92 77 *L 0 *D DFFPOSX1
*I *333:CLK I *C 140 37 *L 0 *D DFFPOSX1
*I *334:CLK I *C 160 37 *L 0 *D DFFPOSX1
*I *335:CLK I *C 163 37 *L 0 *D DFFPOSX1
*I *328:CLK I *C 163 64 *L 0 *D DFFPOSX1
*P *17 I *C 0 0 *L 0

*CAP
1 *325:CLK 1.35542e-05
2 *17 1.35542e-05

*RES
1 *325:CLK *17 0.0266667
2 *17:108 *328:CLK 4
3 *17:107 *17:108 1.6
4 *17:106 *17:107 0.16
5 *17:105 *17:106 1.28
6 *17:104 *17:105 0.16
7 *17:103 *17:104 1.84
8 *17:102 *17:103 0.16
9 *17:101 *17:102 1.6
10 *17:100 *17:101 0.16
11 *17:99 *17:100 0.8
12 *335:CLK *17:99 4
13 *17:97 *335:CLK 4
14 *17:95 *17:97 0.24
15 *17:94 *334:CLK 4
16 *17:93 *17:95 4
17 *17:92 *17:94 4
18 *17:92 *17:93 2.08
19 *17:91 *17:92 0.4
20 *17:90 *17:91 0.08
21 *17:89 *17:90 1.92
22 *17:87 *17:89 0.08
23 *17:86 *333:CLK 0.16
24 *17:85 *17:87 0.4
25 *17:84 *17:86 4
26 *17:84 *17:85 4
27 *17:83 *17:84 4.24
28 *17:82 *17:83 4
29 *17:81 *17:82 1.28
30 *17:80 *17:81 0.48
31 *17:79 *17:80 3.36
32 *17:78 *17:79 0.48
33 *17:77 *17:78 1.92
34 *17:76 *17:77 0.24
35 *17:75 *17:76 5.92
36 *17:74 *17:75 0.24
37 *17:73 *17:74 0.4
38 *17:72 *17:73 4
39 *17:71 *17:72 6.08
40 *17:70 *17:71 0.16
41 *17:68 *17:70 0.48
42 *17:68 *330:CLK 4
43 *17:64 *17:68 1.6
44 *17:64 *331:CLK 4
45 *17:63 *332:CLK 0.16
46 *17:61 *336:CLK 4
47 *17:60 *17:64 3.44
48 *17:60 *17:63 4
49 *17:59 *338:CLK 4
50 *17:56 *17:61 0.8
51 *17:55 *17:60 1.04
52 *17:55 *17:59 0.8
53 *17:53 *340:CLK 4
54 *17:52 *329:CLK 4
55 *17:51 *17:56 1.04
56 *17:51 *17:55 0.4
57 *17:50 *327:CLK 4
58 *17:49 *17:53 0.8
59 *17:49 *17:52 4.48
60 *17:48 *17:51 5.28
61 *17:48 *17:50 1.04
62 *17:47 *17:49 4
63 *17:46 *17:48 4
64 *17:46 *17:47 6.56
65 *17:45 *17:46 4.88
66 *17:43 *17:45 4
67 *17:42 *324:CLK 4
68 *17:41 *17:43 3.44
69 *17:41 *17:42 0.8
70 *17:40 *17:41 4
71 *17:39 *17:40 1.28
72 *17:37 *17:39 0.48
73 *17:36 *343:CLK 4
74 *17:35 *17:37 5.12
75 *17:34 *17:36 1.04
76 *17:33 *17:35 0.48
77 *17:32 *17:34 4
78 *17:32 *17:33 0.4
79 *17:31 *17:32 0.4
80 *17:30 *17:31 0.24
81 *17:29 *17:30 1.28
82 *17:28 *17:29 0.24
83 *17:27 *17:28 1.68
84 *17:25 *17:27 4
85 *17:23 *341:CLK 4
86 *17:23 *17:25 4.48
87 *17:22 *339:CLK 4
88 *17:22 *17:23 3.2
89 *17:21 *17:22 0.8
90 *17:19 *17:21 0.16
91 *17:18 *337:CLK 4
92 *17:18 *17:19 1.04
93 *17:17 *17:18 1.28
94 *17:16 *17:17 0.4
95 *17:15 *17:16 2.4
96 *17:13 *17:15 0.16
97 *17:12 *342:CLK 4
98 *17:12 *17:13 1.84
99 *17:11 *17:12 0.48
100 *17:9 *17:11 0.16
101 *17:8 *325:CLK 4
102 *17:7 *17:9 1.84
103 *17:6 *17:8 0.8
104 *17:4 *17:7 0.16
105 *17:3 *17:6 0.16
106 *17:2 *326:CLK 4
107 *17:2 *17:4 0.8
108 *17:1 *17:3 4.8
109 *17:0 *17:2 1.6
110 *17:0 *17:1 0.16
*END

*D_NET *18 2.71084e-05

*CONN
*I *398:B I *C 152 56 *L 0 *D NOR2X1
*I *396:A I *C 153 64 *L 0 *D OAI21X1
*I *401:A I *C 160 58 *L 0 *D NOR2X1
*I *602:A I *C 165 57 *L 0 *D INVX2
*P *18 I *C 0 0 *L 0

*CAP
1 *398:B 1.35542e-05
2 *18 1.35542e-05

*RES
1 *398:B *18 0.0266667
2 *18:13 *602:A 4
3 *18:11 *401:A 4
4 *18:10 *18:13 0.48
5 *18:9 *396:A 0.24
6 *18:8 *18:11 0.24
7 *18:7 *18:10 4
8 *18:6 *18:9 0.4
9 *18:5 *18:8 4
10 *18:5 *18:7 1.44
11 *18:4 *18:6 4
12 *18:3 *18:5 2.08
13 *18:1 *18:4 1.6
14 *18:1 *18:3 4
15 *18:0 *398:B 4
16 *18:0 *18:1 0.8
*END

*D_NET *19 2.71084e-05

*CONN
*I *608:A I *C 88 37 *L 0 *D INVX2
*I *435:C I *C 94 34 *L 0 *D NAND3X1
*I *379:A I *C 98 38 *L 0 *D NOR2X1
*P *19 I *C 0 0 *L 0

*CAP
1 *608:A 1.35542e-05
2 *19 1.35542e-05

*RES
1 *608:A *19 0.0266667
2 *19:8 *379:A 4
3 *19:7 *435:C 4
4 *19:6 *19:8 0.24
5 *19:4 *19:7 0.8
6 *19:3 *19:6 4
7 *19:2 *608:A 4
8 *19:1 *19:4 4
9 *19:1 *19:3 1.04
10 *19:0 *19:2 4
11 *19:0 *19:1 1.68
*END

*D_NET *21 2.71084e-05

*CONN
*I *455:A I *C 68 37 *L 0 *D NAND2X1
*I *454:B I *C 70 36 *L 0 *D NOR2X1
*P *21 I *C 0 0 *L 0

*CAP
1 *455:A 1.35542e-05
2 *21 1.35542e-05

*RES
1 *455:A *21 0.0266667
2 *21:4 *454:B 0.16
3 *21:3 *21:4 4
4 *21:2 *21:3 0.24
5 *21:1 *21:2 0.4
6 *455:A *21:1 4
*END

*D_NET *22 2.71084e-05

*CONN
*I *453:A I *C 84 37 *L 0 *D NAND2X1
*I *611:A I *C 85 37 *L 0 *D INVX2
*P *22 I *C 0 0 *L 0

*CAP
1 *453:A 1.35542e-05
2 *22 1.35542e-05

*RES
1 *453:A *22 0.0266667
2 *453:A *611:A 0.4
*END

*D_NET *23 2.71084e-05

*CONN
*I *612:A I *C 125 37 *L 0 *D INVX2
*I *461:A I *C 120 38 *L 0 *D NOR2X1
*P *23 I *C 0 0 *L 0

*CAP
1 *461:A 1.35542e-05
2 *23 1.35542e-05

*RES
1 *461:A *23 0.0266667
2 *23:5 *461:A 4
3 *23:4 *23:5 4
4 *23:3 *23:4 1.44
5 *23:2 *23:3 4
6 *23:1 *23:2 0.24
7 *612:A *23:1 4
*END

*D_NET *24 2.71084e-05

*CONN
*I *614:A I *C 139 57 *L 0 *D INVX2
*I *373:C I *C 139 45 *L 0 *D AOI22X1
*I *429:B I *C 137 56 *L 0 *D NOR2X1
*P *24 I *C 0 0 *L 0

*CAP
1 *373:C 1.35542e-05
2 *24 1.35542e-05

*RES
1 *373:C *24 0.0266667
2 *24:3 *429:B 0.4
3 *24:2 *373:C 4
4 *614:A *24:3 0.24
5 *24:0 *24:2 3.2
6 *24:0 *614:A 4
*END

*D_NET *25 2.71084e-05

*CONN
*I *414:A I *C 118 37 *L 0 *D OAI21X1
*I *461:B I *C 121 36 *L 0 *D NOR2X1
*I *616:A I *C 132 37 *L 0 *D INVX2
*I *376:A I *C 136 37 *L 0 *D OAI21X1
*P *25 I *C 0 0 *L 0

*CAP
1 *414:A 1.35542e-05
2 *25 1.35542e-05

*RES
1 *414:A *25 0.0266667
2 *25:13 *376:A 0.64
3 *25:11 *25:13 4
4 *25:10 *616:A 0.16
5 *25:9 *25:11 4
6 *25:8 *25:10 4
7 *25:6 *25:9 0.64
8 *25:6 *25:8 4
9 *25:4 *461:B 4
10 *25:3 *25:6 2.56
11 *25:2 *414:A 0.4
12 *25:1 *25:4 0.24
13 *25:1 *25:3 4
14 *25:0 *25:2 4
15 *25:0 *25:1 0.4
*END

*D_NET *26 2.71084e-05

*CONN
*I *489:Y O *C 168 59 *L 0 *D INVX8
*I *372:C I *C 164 47 *L 0 *D NAND3X1
*P *26 O *C 0 0 *L 0

*CAP
1 *372:C 1.35542e-05
2 *26 1.35542e-05

*RES
1 *372:C *26 0.0266667
2 *26:3 *372:C 4
3 *26:2 *26:3 1.04
4 *26:1 *26:2 1.28
5 *489:Y *26:1 4
*END

*D_NET *27 0

*CONN
*I *441:A I *C 69 45 *L 0 *D AOI22X1
*I *511:A I *C 89 77 *L 0 *D INVX2
*I *330:Q O *C 100 79 *L 0 *D DFFPOSX1

*CAP

*RES
1 *27:25 *330:Q 2.96
2 *27:24 *27:25 4
3 *27:23 *27:24 0.24
4 *27:22 *27:23 4
5 *27:21 *27:22 2.56
6 *27:19 *27:21 0.24
7 *27:18 *511:A 4
8 *27:17 *27:19 3.36
9 *27:16 *27:18 0.8
10 *27:16 *27:17 4
11 *27:15 *27:16 0.48
12 *27:14 *27:15 0.16
13 *27:13 *27:14 2.4
14 *27:12 *27:13 0.16
15 *27:11 *27:12 0.48
16 *27:10 *27:11 4
17 *27:9 *27:10 2.32
18 *27:8 *27:9 0.24
19 *27:7 *27:8 2.32
20 *27:5 *27:7 0.24
21 *27:4 *441:A 4
22 *27:3 *27:5 0.4
23 *27:2 *27:4 2.64
24 *27:1 *27:3 4
25 *27:0 *27:2 0.16
26 *27:0 *27:1 1.6
*END

*D_NET *28 0

*CONN
*I *331:Q O *C 101 82 *L 0 *D DFFPOSX1
*I *438:A I *C 67 65 *L 0 *D AOI22X1
*I *510:A I *C 116 97 *L 0 *D INVX2
*I *482:A I *C 140 84 *L 0 *D XOR2X1
*I *541:A I *C 132 78 *L 0 *D NOR2X1
*I *522:A I *C 148 84 *L 0 *D XNOR2X1
*I *474:A I *C 162 84 *L 0 *D HAX1
*I *521:B I *C 156 77 *L 0 *D OR2X1
*I *557:B I *C 164 76 *L 0 *D NOR2X1

*CAP

*RES
1 *28:55 *557:B 0.16
2 *28:54 *28:55 4
3 *28:53 *28:54 0.24
4 *28:52 *28:53 4
5 *28:50 *28:52 1.92
6 *28:47 *521:B 4
7 *28:47 *28:50 4
8 *28:46 *474:A 4
9 *28:45 *522:A 0.16
10 *28:44 *28:47 0.4
11 *28:43 *28:46 0.24
12 *28:40 *28:45 4
13 *28:39 *28:44 1.6
14 *28:38 *28:43 4
15 *28:37 *541:A 4
16 *28:36 *482:A 4
17 *28:35 *28:40 0.24
18 *28:34 *28:39 4
19 *28:34 *28:38 0.8
20 *28:33 *28:37 1.04
21 *28:32 *28:36 0.24
22 *28:31 *28:35 4
23 *28:31 *28:34 1.68
24 *28:30 *28:33 4
25 *28:29 *28:32 4
26 *28:29 *28:31 1.92
27 *28:26 *28:30 0.24
28 *28:26 *28:29 2.08
29 *28:25 *510:A 4
30 *28:24 *438:A 0.16
31 *28:23 *28:26 0.48
32 *28:22 *28:25 2.08
33 *28:21 *28:24 4
34 *28:20 *28:23 2.96
35 *28:19 *28:22 0.16
36 *28:18 *28:21 2.4
37 *28:17 *28:20 0.24
38 *28:16 *28:19 0.8
39 *28:15 *28:18 4
40 *28:14 *28:17 1.68
41 *28:14 *28:16 4
42 *28:13 *28:15 4
43 *28:12 *28:14 0.4
44 *28:11 *28:13 2.8
45 *28:10 *28:12 0.24
46 *28:9 *28:11 4
47 *28:8 *28:10 3.2
48 *28:7 *28:9 7.42
49 *28:6 *28:8 0.24
50 *28:5 *28:7 4
51 *28:4 *28:6 0.4
52 *28:4 *28:5 4
53 *28:2 *28:4 4
54 *28:1 *331:Q 4
55 *28:1 *28:2 0.08
56 *28:0 *28:1 0.106667
*END

*D_NET *29 0

*CONN
*I *332:Q O *C 91 99 *L 0 *D DFFPOSX1
*I *507:A I *C 91 84 *L 0 *D INVX2
*I *349:A I *C 67 85 *L 0 *D AOI22X1

*CAP

*RES
1 *29:13 *349:A 1.28
2 *29:12 *29:13 4
3 *29:11 *29:12 0.8
4 *29:8 *29:11 4
5 *29:7 *507:A 4
6 *29:6 *332:Q 4
7 *29:5 *29:8 0.4
8 *29:4 *29:7 1.04
9 *29:4 *29:6 1.04
10 *29:3 *29:5 0.24
11 *29:2 *29:4 4
12 *29:1 *29:3 4.24
13 *29:0 *29:2 0.4
14 *29:0 *29:1 0.24
*END

*D_NET *30 0

*CONN
*I *336:Q O *C 81 99 *L 0 *D DFFPOSX1
*I *506:A I *C 87 77 *L 0 *D INVX2
*I *366:A I *C 70 96 *L 0 *D AOI22X1
*I *538:B I *C 127 104 *L 0 *D AOI21X1
*I *537:B I *C 127 96 *L 0 *D NOR2X1

*CAP

*RES
1 *30:35 *537:B 0.48
2 *30:33 *30:35 4
3 *30:32 *538:B 4
4 *30:31 *30:33 0.24
5 *30:31 *30:32 1.28
6 *30:30 *30:31 4
7 *30:28 *30:30 2.32
8 *30:27 *366:A 0.16
9 *30:26 *30:28 0.48
10 *30:25 *30:27 4
11 *30:24 *30:26 6.8
12 *30:22 *30:25 0.24
13 *30:21 *30:24 0.24
14 *30:20 *506:A 4
15 *30:19 *30:22 4
16 *30:18 *30:21 2.56
17 *30:17 *30:20 0.24
18 *30:16 *30:19 0.4
19 *30:15 *30:18 0.24
20 *30:14 *30:17 4
21 *30:13 *30:16 0.24
22 *30:12 *30:15 0.4
23 *30:11 *30:14 1.44
24 *30:10 *30:13 1.92
25 *30:9 *30:12 4
26 *30:8 *30:11 4
27 *30:7 *30:10 0.24
28 *336:Q *30:9 4
29 *30:6 *30:8 0.48
30 *30:5 *30:7 0.4
31 *30:3 *30:6 0.16
32 *30:2 *30:5 4
33 *30:2 *336:Q 4
34 *30:1 *30:3 1.84
35 *30:0 *30:2 2.08
36 *30:0 *30:1 0.16
*END

*D_NET *31 0

*CONN
*I *359:A I *C 72 105 *L 0 *D AOI22X1
*I *505:A I *C 112 104 *L 0 *D INVX2
*I *338:Q O *C 101 102 *L 0 *D DFFPOSX1

*CAP

*RES
1 *505:A *338:Q 2.72
2 *31:18 *505:A 4
3 *31:16 *31:18 0.48
4 *31:15 *359:A 4
5 *31:14 *31:16 4
6 *31:13 *31:15 0.24
7 *31:12 *31:14 0.4
8 *31:11 *31:13 4
9 *31:10 *31:12 0.48
10 *31:9 *31:11 0.4
11 *31:8 *31:10 3.6
12 *31:7 *31:9 0.48
13 *31:6 *31:8 0.48
14 *31:5 *31:7 2.56
15 *31:4 *31:6 1.68
16 *31:3 *31:5 0.48
17 *31:2 *31:4 0.24
18 *31:1 *31:3 0.4
19 *31:0 *31:2 1.44
20 *31:0 *31:1 0.24
*END

*D_NET *32 0

*CONN
*I *504:A I *C 82 104 *L 0 *D INVX2
*I *352:A I *C 76 105 *L 0 *D AOI22X1
*I *340:Q O *C 110 119 *L 0 *D DFFPOSX1
*I *534:B I *C 138 117 *L 0 *D AOI21X1

*CAP

*RES
1 *32:28 *534:B 0.16
2 *32:27 *32:28 4
3 *32:25 *32:27 1.28
4 *32:24 *340:Q 0.64
5 *32:23 *32:25 4
6 *32:22 *32:24 0.24
7 *32:21 *32:23 0.64
8 *32:20 *32:22 1.68
9 *32:19 *32:21 0.24
10 *32:18 *32:20 0.24
11 *32:17 *32:19 2.08
12 *32:16 *32:18 0.4
13 *32:15 *32:17 0.08
14 *32:14 *32:16 4
15 *32:13 *32:15 3.6
16 *32:12 *32:14 0.24
17 *32:11 *32:13 0.08
18 *32:9 *32:12 4
19 *32:9 *32:11 3.6
20 *32:8 *352:A 0.16
21 *32:6 *32:9 4.64
22 *32:5 *32:8 4
23 *32:4 *504:A 4
24 *32:3 *32:6 4
25 *32:2 *32:5 4
26 *32:1 *32:4 0.24
27 *32:1 *32:3 1.6
28 *32:0 *32:2 1.44
29 *32:0 *32:1 4
*END

*D_NET *33 0

*CONN
*I *508:A I *C 95 117 *L 0 *D INVX2
*I *346:A I *C 72 116 *L 0 *D AOI22X1
*I *327:Q O *C 101 122 *L 0 *D DFFPOSX1

*CAP

*RES
1 *33:14 *327:Q 4
2 *33:13 *33:14 1.68
3 *33:11 *33:13 4
4 *33:10 *346:A 0.8
5 *508:A *33:11 1.28
6 *33:8 *33:10 4
7 *33:7 *508:A 4
8 *33:6 *33:8 0.24
9 *33:5 *33:7 4
10 *33:4 *33:6 4
11 *33:3 *33:5 1.04
12 *33:2 *33:4 2.08
13 *33:1 *33:3 0.24
14 *33:0 *33:2 0.24
15 *33:0 *33:1 2.08
*END

*D_NET *34 0

*CONN
*I *325:Q O *C 35 39 *L 0 *D DFFPOSX1
*I *496:A I *C 32 37 *L 0 *D INVX2

*CAP

*RES
1 *34:3 *496:A 4
2 *34:2 *34:3 0.4
3 *34:1 *34:2 4
4 *325:Q *34:1 0.16
*END

*D_NET *35 0

*CONN
*I *553:A I *C 54 43 *L 0 *D NOR2X1
*I *487:A I *C 63 58 *L 0 *D INVX1
*I *552:A I *C 51 57 *L 0 *D XNOR2X1
*I *466:A I *C 37 57 *L 0 *D HAX1
*I *438:C I *C 64 65 *L 0 *D AOI22X1
*I *326:Q O *C 40 62 *L 0 *D DFFPOSX1

*CAP

*RES
1 *35:19 *326:Q 0.64